<?xml version="1.0" encoding="UTF-8"?>
<!DOCTYPE plist PUBLIC "-//Apple//DTD PLIST 1.0//EN" "http://www.apple.com/DTDs/PropertyList-1.0.dtd">
<plist version="1.0">
<dict>
	<key>URL</key>
	<string>https://www.travisluong.com/ruby-on-rails-dynamic-forms/</string>
</dict>
</plist>
